*Heading
** Job name: 30-0 Model name: 30-0
** Generated by: Abaqus/CAE 6.14-2
*Preprint, echo=NO, model=NO, history=NO, contact=NO
**
** PARTS
**
*Part, name=con
*End Part
**  
*Part, name=steel
*End Part
**  
**
** ASSEMBLY
**
*Assembly, name=Assembly
**  
*Instance, name=con-1, part=con
*Node
      1,           0.,        -200.,        2107.
      2,   187.100006,        -200.,        2107.
      3,   187.100006,         200.,        2107.
      4,           0.,         200.,        2107.
      5,   187.100006,        -200.,           0.
      6,   187.100006,         200.,           0.
      7,           0.,         200.,           0.
      8,           0.,        -200.,           0.
      9,           0.,   387.100006,        2107.
     10,           0.,   387.100006,           0.
     11,           0.,  -387.100006,           0.
     12,           0.,  -387.100006,        2107.
     13,   46.7750015,        -200.,        2107.
     14,   93.5500031,        -200.,        2107.
     15,   140.324997,        -200.,        2107.
     16,   187.100006,        -150.,        2107.
     17,   187.100006,        -100.,        2107.
     18,   187.100006,         -50.,        2107.
     19,   187.100006,           0.,        2107.
     20,   187.100006,          50.,        2107.
** ... 2167 like lines cut
*Element, type=C3D8R
  1,  102,  627, 1213,  277,    1,   13,  235,   32
  2,  627,  628, 1214, 1213,   13,   14,  236,  235
  3,  628,  629, 1215, 1214,   14,   15,  237,  236
  4,  629,  128,  452, 1215,   15,    2,   16,  237
  5,  277, 1213, 1216,  278,   32,  235,  238,   31
  6, 1213, 1214, 1217, 1216,  235,  236,  239,  238
  7, 1214, 1215, 1218, 1217,  236,  237,  240,  239
  8, 1215,  452,  453, 1218,  237,   16,   17,  240
  9,  278, 1216, 1219,  279,   31,  238,  241,   30
 10, 1216, 1217, 1220, 1219,  238,  239,  242,  241
 11, 1217, 1218, 1221, 1220,  239,  240,  243,  242
 12, 1218,  453,  454, 1221,  240,   17,   18,  243
 13,  279, 1219, 1222,  280,   30,  241,  244,   29
 14, 1219, 1220, 1223, 1222,  241,  242,  245,  244
 15, 1220, 1221, 1224, 1223,  242,  243,  246,  245
 16, 1221,  454,  455, 1224,  243,   18,   19,  246
 17,  280, 1222, 1225,  281,   29,  244,  247,   28
 18, 1222, 1223, 1226, 1225,  244,  245,  248,  247
 19, 1223, 1224, 1227, 1226,  245,  246,  249,  248
 20, 1224,  455,  456, 1227,  246,   19,   20,  249
** ... 1592 like lines cut
*Nset, nset=Set-con, generate
    1,  2187,     1
*Elset, elset=Set-con, generate
    1,  1612,     1
** Section: con
*Solid Section, elset=Set-con, material=con
,
*End Instance
**  
*Instance, name=steel-1, part=steel
*Node
      1,           0.,   387.100006,        2107.
      2,   187.100006,         200.,        2107.
      3,   187.100006,         200.,           0.
      4,           0.,   387.100006,           0.
      5,   187.100006,        -200.,        2107.
      6,   187.100006,        -200.,           0.
      7,           0.,  -387.100006,        2107.
      8,           0.,  -387.100006,           0.
      9,    48.425045,   380.724731,        2107.
     10,   93.5500031,   362.033356,        2107.
     11,   132.299683,   332.299683,        2107.
     12,   162.033356,   293.549988,        2107.
     13,   180.724716,   248.425049,        2107.
     14,   187.100006,         200.,   2025.96155
     15,   187.100006,         200.,    1944.9231
     16,   187.100006,         200.,   1863.88464
     17,   187.100006,         200.,   1782.84619
     18,   187.100006,         200.,   1701.80774
     19,   187.100006,         200.,   1620.76929
     20,   187.100006,         200.,   1539.73071
** ... 547 like lines cut
*Element, type=S4R
  1,   1,   9, 143,  68
  2,   9,  10, 144, 143
  3,  10,  11, 145, 144
  4,  11,  12, 146, 145
  5,  12,  13, 147, 146
  6,  13,   2,  14, 147
  7,  68, 143, 148,  67
  8, 143, 144, 149, 148
  9, 144, 145, 150, 149
 10, 145, 146, 151, 150
 11, 146, 147, 152, 151
 12, 147,  14,  15, 152
 13,  67, 148, 153,  66
 14, 148, 149, 154, 153
 15, 149, 150, 155, 154
 16, 150, 151, 156, 155
 17, 151, 152, 157, 156
 18, 152,  15,  16, 157
 19,  66, 153, 158,  65
 20, 153, 154, 159, 158
** ... 500 like lines cut
*Nset, nset=Set-steel, generate
   1,  567,    1
*Elset, elset=Set-steel, generate
   1,  520,    1
*Orientation, name=Ori-6
1., 0., 0., 0., 1., 0.
1, 0.
** Section: steel
*Shell Section, elset=Set-steel, material=steel, orientation=Ori-6, offset=SNEG
12.9, 5
*End Instance
**  
*Node
      1,           0.,           0.,           0.
*Node
      2,           0.,           0.,        2107.
*Nset, nset=LOAD1
 1,
*Nset, nset=LOAD2
 2,
*Nset, nset=Set-J1, instance=con-1
    5,    6,    7,    8,   10,   11,   33,   34,   35,   36,   37,   38,   39,   40,   41,   42
   43,   44,   45,   46,   47,   48,   49,   50,   51,   52,  186,  187,  188,  189,  190,  191
  192,  193,  194,  195,  196,  197,  198,  199,  200,  201,  256,  257,  258,  259,  260,  261
  262,  263,  264,  265,  266,  267,  268,  269,  270,  271,  272,  273,  274,  275,  276,  986
  987,  988,  989,  990,  991,  992,  993,  994,  995,  996,  997,  998,  999, 1000, 1001, 1002
 1003,
*Nset, nset=Set-J1, instance=steel-1
   3,   4,   6,   8,  39,  40,  41,  42,  43, 101, 102, 103, 104, 105, 106, 107
 138, 139, 140, 141, 142
*Elset, elset=Set-J1, instance=con-1
  801,  802,  803,  804,  805,  806,  807,  808,  809,  810,  811,  812,  813,  814,  815,  816
  817,  818,  819,  820,  821,  822,  823,  824,  825,  826,  827,  828,  829,  830,  831,  832
 1028, 1041, 1054, 1079, 1092, 1105, 1118, 1131, 1144, 1157, 1170, 1183, 1184, 1185, 1186, 1223
 1224, 1225, 1226, 1227, 1228, 1229, 1230, 1231, 1340, 1341, 1342, 1379, 1380, 1381
*Elset, elset=Set-J1, instance=steel-1
 151, 152, 153, 154, 155, 156, 357, 358, 359, 360, 361, 362, 363, 364, 515, 516
 517, 518, 519, 520
*Nset, nset=Set-J2, instance=con-1
    1,    2,    3,    4,    9,   12,   13,   14,   15,   16,   17,   18,   19,   20,   21,   22
   23,   24,   25,   26,   27,   28,   29,   30,   31,   32,  153,  154,  155,  156,  157,  158
  159,  160,  227,  228,  229,  230,  231,  232,  233,  234,  235,  236,  237,  238,  239,  240
  241,  242,  243,  244,  245,  246,  247,  248,  249,  250,  251,  252,  253,  254,  255,  777
  778,  779,  780,  781,  782,  783,  784,  785, 1204, 1205, 1206, 1207, 1208, 1209, 1210, 1211
 1212,
*Nset, nset=Set-J2, instance=steel-1
   1,   2,   5,   7,   9,  10,  11,  12,  13,  69,  70,  71,  72,  73,  74,  75
 108, 109, 110, 111, 112
*Elset, elset=Set-J2, instance=con-1
    1,    2,    3,    4,    5,    6,    7,    8,    9,   10,   11,   12,   13,   14,   15,   16
   17,   18,   19,   20,   21,   22,   23,   24,   25,   26,   27,   28,   29,   30,   31,   32
  833,  834,  835,  836,  837,  838,  839,  840,  841,  950,  951,  952,  989,  990,  991, 1418
 1431, 1444, 1469, 1482, 1495, 1508, 1521, 1534, 1547, 1560, 1573, 1574, 1575, 1576
*Elset, elset=Set-J2, instance=steel-1
   1,   2,   3,   4,   5,   6, 157, 158, 159, 160, 161, 162, 163, 164, 365, 366
 367, 368, 369, 370
*Nset, nset=Set-YZ-C, instance=con-1
    1,    4,    7,    8,    9,   10,   11,   12,   26,   27,   28,   29,   30,   31,   32,   46
   47,   48,   49,   50,   51,   52,   53,   54,   55,   56,   57,   58,   59,   60,   61,   62
   63,   64,   65,   66,   67,   68,   69,   70,   71,   72,   73,   74,   75,   76,   77,   78
   79,   80,   81,   82,   83,   84,   85,   86,   87,   88,   89,   90,   91,   92,   93,   94
   95,   96,   97,   98,   99,  100,  101,  102,  153,  154,  155,  161,  162,  163,  164,  165
  166,  167,  168,  169,  170,  171,  172,  173,  174,  175,  176,  177,  178,  179,  180,  181
  182,  183,  184,  185,  191,  192,  193,  194,  195,  196,  202,  203,  204,  205,  206,  207
  208,  209,  210,  211,  212,  213,  214,  215,  216,  217,  218,  219,  220,  221,  222,  223
  224,  225,  226,  232,  233,  234,  277,  278,  279,  280,  281,  282,  283,  284,  285,  286
  287,  288,  289,  290,  291,  292,  293,  294,  295,  296,  297,  298,  299,  300,  301,  302
  303,  304,  305,  306,  307,  308,  309,  310,  311,  312,  313,  314,  315,  316,  317,  318
  319,  320,  321,  322,  323,  324,  325,  326,  327,  328,  329,  330,  331,  332,  333,  334
  335,  336,  337,  338,  339,  340,  341,  342,  343,  344,  345,  346,  347,  348,  349,  350
  351,  352,  353,  354,  355,  356,  357,  358,  359,  360,  361,  362,  363,  364,  365,  366
  367,  368,  369,  370,  371,  372,  373,  374,  375,  376,  377,  378,  379,  380,  381,  382
  383,  384,  385,  386,  387,  388,  389,  390,  391,  392,  393,  394,  395,  396,  397,  398
  399,  400,  401,  402,  403,  404,  405,  406,  407,  408,  409,  410,  411,  412,  413,  414
  415,  416,  417,  418,  419,  420,  421,  422,  423,  424,  425,  426,  427,  428,  429,  430
  431,  432,  433,  434,  435,  436,  437,  438,  439,  440,  441,  442,  443,  444,  445,  446
  447,  448,  449,  450,  451,  786,  787,  788,  789,  790,  791,  792,  793,  794,  795,  796
** ... 9 like lines cut
*Elset, elset=Set-YZ-C, instance=con-1
    1,    5,    9,   13,   17,   21,   25,   29,   33,   37,   41,   45,   49,   53,   57,   61
   65,   69,   73,   77,   81,   85,   89,   93,   97,  101,  105,  109,  113,  117,  121,  125
  129,  133,  137,  141,  145,  149,  153,  157,  161,  165,  169,  173,  177,  181,  185,  189
  193,  197,  201,  205,  209,  213,  217,  221,  225,  229,  233,  237,  241,  245,  249,  253
  257,  261,  265,  269,  273,  277,  281,  285,  289,  293,  297,  301,  305,  309,  313,  317
  321,  325,  329,  333,  337,  341,  345,  349,  353,  357,  361,  365,  369,  373,  377,  381
  385,  389,  393,  397,  401,  405,  409,  413,  417,  421,  425,  429,  433,  437,  441,  445
  449,  453,  457,  461,  465,  469,  473,  477,  481,  485,  489,  493,  497,  501,  505,  509
  513,  517,  521,  525,  529,  533,  537,  541,  545,  549,  553,  557,  561,  565,  569,  573
  577,  581,  585,  589,  593,  597,  601,  605,  609,  613,  617,  621,  625,  629,  633,  637
  641,  645,  649,  653,  657,  661,  665,  669,  673,  677,  681,  685,  689,  693,  697,  701
  705,  709,  713,  717,  721,  725,  729,  733,  737,  741,  745,  749,  753,  757,  761,  765
  769,  773,  777,  781,  785,  789,  793,  797,  801,  805,  809,  813,  817,  821,  825,  829
  833,  834,  835,  842,  843,  844,  851,  852,  853,  860,  861,  862,  869,  870,  871,  878
  879,  880,  887,  888,  889,  896,  897,  898,  905,  906,  907,  914,  915,  916,  923,  924
  925,  932,  933,  934,  941,  942,  943,  991,  994,  997, 1000, 1003, 1006, 1009, 1012, 1015
 1018, 1021, 1024, 1027, 1067, 1068, 1069, 1070, 1071, 1072, 1073, 1074, 1075, 1076, 1077, 1078
 1079, 1106, 1107, 1108, 1109, 1110, 1111, 1112, 1113, 1114, 1115, 1116, 1117, 1118, 1145, 1146
 1147, 1148, 1149, 1150, 1151, 1152, 1153, 1154, 1155, 1156, 1157, 1186, 1189, 1192, 1195, 1198
 1201, 1204, 1207, 1210, 1213, 1216, 1219, 1222, 1223, 1224, 1225, 1232, 1233, 1234, 1241, 1242
** ... 6 like lines cut
*Nset, nset=Set-YZ-S, instance=steel-1
   1,   4,   7,   8,  44,  45,  46,  47,  48,  49,  50,  51,  52,  53,  54,  55
  56,  57,  58,  59,  60,  61,  62,  63,  64,  65,  66,  67,  68, 113, 114, 115
 116, 117, 118, 119, 120, 121, 122, 123, 124, 125, 126, 127, 128, 129, 130, 131
 132, 133, 134, 135, 136, 137
*Elset, elset=Set-YZ-S, instance=steel-1
   1,   7,  13,  19,  25,  31,  37,  43,  49,  55,  61,  67,  73,  79,  85,  91
  97, 103, 109, 115, 121, 127, 133, 139, 145, 151, 370, 376, 382, 388, 394, 400
 406, 412, 418, 424, 430, 436, 442, 448, 454, 460, 466, 472, 478, 484, 490, 496
 502, 508, 514, 520
*Elset, elset=_m_Surf-1_SNEG, internal, instance=steel-1, generate
   1,  520,    1
*Surface, type=ELEMENT, name=m_Surf-1
_m_Surf-1_SNEG, SNEG
*Elset, elset=_s_Surf-1_S4, internal, instance=con-1
    4,    8,   12,   16,   20,   24,   28,   32,   36,   40,   44,   48,   52,   56,   60,   64
   68,   72,   76,   80,   84,   88,   92,   96,  100,  104,  108,  112,  116,  120,  124,  128
  132,  136,  140,  144,  148,  152,  156,  160,  164,  168,  172,  176,  180,  184,  188,  192
  196,  200,  204,  208,  212,  216,  220,  224,  228,  232,  236,  240,  244,  248,  252,  256
  260,  264,  268,  272,  276,  280,  284,  288,  292,  296,  300,  304,  308,  312,  316,  320
  324,  328,  332,  336,  340,  344,  348,  352,  356,  360,  364,  368,  372,  376,  380,  384
  388,  392,  396,  400,  404,  408,  412,  416,  420,  424,  428,  432,  436,  440,  444,  448
  452,  456,  460,  464,  468,  472,  476,  480,  484,  488,  492,  496,  500,  504,  508,  512
  516,  520,  524,  528,  532,  536,  540,  544,  548,  552,  556,  560,  564,  568,  572,  576
  580,  584,  588,  592,  596,  600,  604,  608,  612,  616,  620,  624,  628,  632,  636,  640
  644,  648,  652,  656,  660,  664,  668,  672,  676,  680,  684,  688,  692,  696,  700,  704
  708,  712,  716,  720,  724,  728,  732,  736,  740,  744,  748,  752,  756,  760,  764,  768
  772,  776,  780,  784,  788,  792,  796,  800,  804,  808,  812,  816,  820,  824,  828,  832
  950,  951,  952,  953,  954,  955,  956,  957,  958,  959,  960,  961,  962,  963,  964,  965
  966,  967,  968,  969,  970,  971,  972,  973,  974,  975,  976,  977,  978,  979,  980,  981
  982,  983,  984,  985,  986,  987,  988, 1028, 1029, 1030, 1031, 1032, 1033, 1034, 1035, 1036
 1037, 1038, 1039, 1040, 1041, 1042, 1043, 1044, 1045, 1046, 1047, 1048, 1049, 1050, 1051, 1052
 1053, 1054, 1055, 1056, 1057, 1058, 1059, 1060, 1061, 1062, 1063, 1064, 1065, 1066, 1340, 1341
 1342, 1343, 1344, 1345, 1346, 1347, 1348, 1349, 1350, 1351, 1352, 1353, 1354, 1355, 1356, 1357
 1358, 1359, 1360, 1361, 1362, 1363, 1364, 1365, 1366, 1367, 1368, 1369, 1370, 1371, 1372, 1373
 1374, 1375, 1376, 1377, 1378, 1418, 1419, 1420, 1421, 1422, 1423, 1424, 1425, 1426, 1427, 1428
 1429, 1430, 1431, 1432, 1433, 1434, 1435, 1436, 1437, 1438, 1439, 1440, 1441, 1442, 1443, 1444
 1445, 1446, 1447, 1448, 1449, 1450, 1451, 1452, 1453, 1454, 1455, 1456
*Elset, elset=_s_Surf-1_S3, internal, instance=con-1
  989,  990,  991,  992,  993,  994,  995,  996,  997,  998,  999, 1000, 1001, 1002, 1003, 1004
 1005, 1006, 1007, 1008, 1009, 1010, 1011, 1012, 1013, 1014, 1015, 1016, 1017, 1018, 1019, 1020
 1021, 1022, 1023, 1024, 1025, 1026, 1027, 1379, 1380, 1381, 1382, 1383, 1384, 1385, 1386, 1387
 1388, 1389, 1390, 1391, 1392, 1393, 1394, 1395, 1396, 1397, 1398, 1399, 1400, 1401, 1402, 1403
 1404, 1405, 1406, 1407, 1408, 1409, 1410, 1411, 1412, 1413, 1414, 1415, 1416, 1417
*Elset, elset=_s_Surf-1_S2, internal, instance=con-1
 1184, 1185, 1186, 1187, 1188, 1189, 1190, 1191, 1192, 1193, 1194, 1195, 1196, 1197, 1198, 1199
 1200, 1201, 1202, 1203, 1204, 1205, 1206, 1207, 1208, 1209, 1210, 1211, 1212, 1213, 1214, 1215
 1216, 1217, 1218, 1219, 1220, 1221, 1222, 1574, 1575, 1576, 1577, 1578, 1579, 1580, 1581, 1582
 1583, 1584, 1585, 1586, 1587, 1588, 1589, 1590, 1591, 1592, 1593, 1594, 1595, 1596, 1597, 1598
 1599, 1600, 1601, 1602, 1603, 1604, 1605, 1606, 1607, 1608, 1609, 1610, 1611, 1612
*Surface, type=ELEMENT, name=s_Surf-1
_s_Surf-1_S4, S4
_s_Surf-1_S3, S3
_s_Surf-1_S2, S2
*Surface, type=NODE, name=Set-J1_CNS_, internal
Set-J1, 1.
*Surface, type=NODE, name=Set-J2_CNS_, internal
Set-J2, 1.
** Constraint: Constraint-1
*Coupling, constraint name=Constraint-1, ref node=LOAD1, surface=Set-J1_CNS_
*Kinematic
** Constraint: Constraint-2
*Coupling, constraint name=Constraint-2, ref node=LOAD2, surface=Set-J2_CNS_
*Kinematic
*End Assembly
** 
** MATERIALS
** 
*Material, name=con
*Elastic
23025., 0.2
*Concrete Damaged Plasticity
36.,    0.1,   1.16, 0.6667,  1e-06
*Concrete Compression Hardening
  8.13696,          0.
  9.95068, 0.000131115
  11.6549, 0.000171828
  13.2497, 0.000217284
  14.7349, 0.000267484
  16.1106, 0.000322429
   18.533, 0.000446564
  20.5166, 0.000589702
  23.1664, 0.000933039
  23.5542,  0.00103077
   23.832,  0.00113327
  23.9998,  0.00124052
  24.0576,  0.00135255
  24.0402,  0.00146782
  23.9863,  0.00158467
  23.9009,  0.00170287
  23.7884,  0.00182224
  19.1348,  0.00451412
  15.0644,  0.00717449
  10.3055,   0.0123299
** ... 14 like lines cut
*Concrete Tension Stiffening, type=GFI
 2.51,5.
*Material, name=steel
*Elastic
200000., 0.3
*Plastic
 53.3476,          0.
 66.6889, 1.37974e-07
 80.0321, 1.06969e-06
 93.3773, 4.16783e-06
 106.725, 1.26518e-05
 120.076, 3.30115e-05
 133.433, 7.72633e-05
 146.799, 0.000166213
 160.182, 0.000333992
 173.594, 0.000634139
 187.056,  0.00114754
   200.6,  0.00199251
  245.52,   0.0107495
 295.995,   0.0356894
 355.795,   0.0801964
 428.944,    0.144627
  519.75,    0.227334
 573.194,    0.274656
 632.787,    0.325389
  665.08,    0.351894
** ... 7 like lines cut
** 
** INTERACTION PROPERTIES
** 
*Surface Interaction, name=IntProp-1
1.,
*Friction, slip tolerance=0.005, taumax=1.12
 0.3,
*Surface Behavior, pressure-overclosure=HARD
** 
** BOUNDARY CONDITIONS
** 
** Name: BC-3 Type: Displacement/Rotation
*Boundary
LOAD1, 1, 1
LOAD1, 2, 2
LOAD1, 4, 4
LOAD1, 5, 5
LOAD1, 6, 6
** Name: BC-4 Type: Displacement/Rotation
*Boundary
LOAD2, 1, 1
LOAD2, 2, 2
LOAD2, 3, 3
LOAD2, 4, 4
LOAD2, 5, 5
LOAD2, 6, 6
** Name: YZ-C Type: Displacement/Rotation
*Boundary
Set-YZ-C, 1, 1
** Name: YZ-S Type: Symmetry/Antisymmetry/Encastre
*Boundary
Set-YZ-S, XSYMM
** 
** INTERACTIONS
** 
** Interaction: Int-1
*Contact Pair, interaction=IntProp-1, type=SURFACE TO SURFACE, adjust=0.0
s_Surf-1, m_Surf-1
** ----------------------------------------------------------------
** 
** STEP: Step-1
** 
*Step, name=Step-1, nlgeom=YES, inc=1000000
*Static
0.002, 1., 1e-07, 0.02
** 
** BOUNDARY CONDITIONS
** 
** Name: BC-5 Type: Displacement/Rotation
*Boundary
LOAD1, 3, 3, 30.
** 
** CONTROLS
** 
*Controls, reset
*Controls, parameters=time incrementation
40, 80, , , , , 120, , , , 
*Controls, parameters=field, field=displacement
0.03, 0.03, , , , , , 
*Controls, parameters=field, field=hydrostatic fluid pressure
0.03, 0.03, , , , , , 
*Controls, parameters=field, field=rotation
0.03, 0.03, , , , , , 
*Controls, parameters=field, field=electrical potential
0.03, 0.03, , , , , , 
** 
** OUTPUT REQUESTS
** 
*Restart, write, frequency=0
** 
** FIELD OUTPUT: F-Output-1
** 
*Output, field, variable=PRESELECT
** 
** HISTORY OUTPUT: H-Output-1
** 
*Output, history, variable=PRESELECT
*End Step
